data/radial_test/case28da.m
function mpc = case28da
%CASE28DA

%% MATPOWER Case Format : Version 2
mpc.version = '2';

%%-----  Power Flow Data  -----%%
%% system MVA base
mpc.baseMVA = 1;

%% bus data
%	bus_i	type	Pd	Qd	Gs	Bs	area	Vm	Va	baseKV	zone	Vmax	Vmin
mpc.bus = [
	1	3	0	0	0	0	1	1	0	11	1	1	1;
	2	1	0.03528	0.035993	0	0	1	1	0	11	1	1	1;
	3	1	0.014	0.014283	0	0	1	1	0	11	1	1	1;
	4	1	0.03528	0.035993	0	0	1	1	0	11	1	1	1;
	5	1	0.014	0.014283	0	0	1	1	0	11	1	1	1;
	6	1	0.03528	0.035993	0	0	1	1	0	11	1	1	1;
	7	1	0.03528	0.035993	0	0	1	1	0	11	1	1	1;
	8	1	0.03528	0.035993	0	0	1	1	0	11	1	1	1;
	9	1	0.014	0.014283	0	0	1	1	0	11	1	1	1;
	10	1	0.014	0.014283	0	0	1	1	0	11	1	1	1;
	11	1	0.056	0.057131	0	0	1	1	0	11	1	1	1;
	12	1	0.03528	0.035993	0	0	1	1	0	11	1	1	1;
	13	1	0.03528	0.035993	0	0	1	1	0	11	1	1	1;
	14	1	0.014	0.014283	0	0	1	1	0	11	1	1	1;
	15	1	0.03528	0.035993	0	0	1	1	0	11	1	1	1;
	16	1	0.03528	0.035993	0	0	1	1	0	11	1	1	1;
	17	1	0.00896	0.009141	0	0	1	1	0	11	1	1	1;
	18	1	0.00896	0.009141	0	0	1	1	0	11	1	1	1;
	19	1	0.03528	0.035993	0	0	1	1	0	11	1	1	1;
	20	1	0.03528	0.035993	0	0	1	1	0	11	1	1	1;
	21	1	0.014	0.014283	0	0	1	1	0	11	1	1	1;
	22	1	0.03528	0.035993	0	0	1	1	0	11	1	1	1;
	23	1	0.00896	0.009141	0	0	1	1	0	11	1	1	1;
	24	1	0.056	0.057131	0	0	1	1	0	11	1	1	1;
	25	1	0.00896	0.009141	0	0	1	1	0	11	1	1	1;
	26	1	0.03528	0.035993	0	0	1	1	0	11	1	1	1;
	27	1	0.03528	0.035993	0	0	1	1	0	11	1	1	1;
	28	1	0.03528	0.035993	0	0	1	1	0	11	1	1	1;
];

%% generator data
%	bus	Pg	Qg	Qmax	Qmin	Vg	mBase	status	Pmax	Pmin	Pc1	Pc2	Qc1min	Qc1max	Qc2min	Qc2max	ramp_agc	ramp_10	ramp_30	ramp_q	apf
mpc.gen = [
	1	0	0	10	-10	1	100	1	10	0	0	0	0	0	0	0	0	0	0	0	0;
];

%% branch data
%	fbus	tbus	r	x	b	rateA	rateB	rateC	ratio	angle	status	angmin	angmax
mpc.branch = [
	1	2	0.00989256198	0.0067768595	0	0	0	0	0	0	1	-360	360;
	2	3	0.0148429752	0.0101735537	0	0	0	0	0	0	1	-360	360;
	3	4	0.0107933884	0.00739669421	0	0	0	0	0	0	1	-360	360;
	4	5	0.0152975207	0.0104793388	0	0	0	0	0	0	1	-360	360;
	5	6	0.0125950413	0.00862809917	0	0	0	0	0	0	1	-360	360;
	6	7	0.0157438017	0.010785124	0	0	0	0	0	0	1	-360	360;
	7	8	0.00989256198	0.0067768595	0	0	0	0	0	0	1	-360	360;
	8	9	0.00539669421	0.00369421488	0	0	0	0	0	0	1	-360	360;
	9	10	0.00944628099	0.00647107438	0	0	0	0	0	0	1	-360	360;
	4	11	0.0233305785	0.00968595041	0	0	0	0	0	0	1	-360	360;
	11	12	0.00978512397	0.00405785124	0	0	0	0	0	0	1	-360	360;
	12	13	0.00828099174	0.00343801653	0	0	0	0	0	0	1	-360	360;
	13	14	0.00376033058	0.00156198347	0	0	0	0	0	0	1	-360	360;
	14	15	0.00451239669	0.00187603306	0	0	0	0	0	0	1	-360	360;
	5	16	0.0210743802	0.00874380165	0	0	0	0	0	0	1	-360	360;
	6	17	0.0112892562	0.00468595041	0	0	0	0	0	0	1	-360	360;
	17	18	0.00676859504	0.00280991736	0	0	0	0	0	0	1	-360	360;
	18	19	0.0127933884	0.00530578512	0	0	0	0	0	0	1	-360	360;
	19	20	0.0112892562	0.00468595041	0	0	0	0	0	0	1	-360	360;
	20	21	0.0293553719	0.0121818182	0	0	0	0	0	0	1	-360	360;
	7	22	0.0127933884	0.00530578512	0	0	0	0	0	0	1	-360	360;
	22	23	0.00902479339	0.00374380165	0	0	0	0	0	0	1	-360	360;
	23	24	0.00752066116	0.00312396694	0	0	0	0	0	0	1	-360	360;
	24	25	0.00376033058	0.00156198347	0	0	0	0	0	0	1	-360	360;
	25	26	0.00300826446	0.00124793388	0	0	0	0	0	0	1	-360	360;
	8	27	0.00451239669	0.0018677686	0	0	0	0	0	0	1	-360	360;
	27	28	0.00225619835	0.000933884298	0	0	0	0	0	0	1	-360	360;
];

%%-----  OPF Data  -----%%
%% generator cost data
%	1	startup	shutdown	n	x1	y1	...	xn	yn
%	2	startup	shutdown	n	c(n-1)	...	c0
mpc.gencost = [
	2	0	0	3	0	20	0;
];
